<?xml version="1.0" encoding="UTF-8"?>

<!-- generated on 2026-06-01 14:44:31 by Eclipse SUMO netconvert Version 1.19.0
<configuration xmlns:xsi="http://www.w3.org/2001/XMLSchema-instance" xsi:noNamespaceSchemaLocation="http://sumo.dlr.de/xsd/netconvertConfiguration.xsd">

    <input>
        <node-files value="sumo/network/nodes.nod.xml"/>
        <edge-files value="sumo/network/edges.edg.xml"/>
    </input>

    <output>
        <output-file value="sumo/network/network.net.xml"/>
    </output>

</configuration>
-->

<net version="1.16" junctionCornerDetail="5" limitTurnSpeed="5.50" xmlns:xsi="http://www.w3.org/2001/XMLSchema-instance" xsi:noNamespaceSchemaLocation="http://sumo.dlr.de/xsd/net_file.xsd">

    <location netOffset="500.00,500.00" convBoundary="0.00,0.00,1500.00,1500.00" origBoundary="-500.00,-500.00,1000.00,1000.00" projParameter="!"/>

    <edge id=":east_0_0" function="internal">
        <lane id=":east_0_0_0" index="0" speed="3.65" length="4.67" shape="1500.00,498.40 1501.20,499.20 1501.60,500.00 1501.20,500.80 1500.00,501.60"/>
    </edge>
    <edge id=":east_1_0" function="internal">
        <lane id=":east_1_0_0" index="0" speed="3.65" length="4.67" shape="1500.00,998.40 1501.20,999.20 1501.60,1000.00 1501.20,1000.80 1500.00,1001.60"/>
    </edge>
    <edge id=":node_0_0_0" function="internal">
        <lane id=":node_0_0_0_0" index="0" speed="6.51" length="9.03" shape="495.20,510.40 494.85,507.95 493.80,506.20 492.05,505.15 489.60,504.80"/>
    </edge>
    <edge id=":node_0_0_1" function="internal">
        <lane id=":node_0_0_1_0" index="0" speed="13.89" length="20.80" shape="495.20,510.40 495.20,489.60"/>
        <lane id=":node_0_0_1_1" index="1" speed="13.89" length="20.80" shape="498.40,510.40 498.40,489.60"/>
    </edge>
    <edge id=":node_0_0_3" function="internal">
        <lane id=":node_0_0_3_0" index="0" speed="9.26" length="5.01" shape="498.40,510.40 499.11,505.44"/>
    </edge>
    <edge id=":node_0_0_4" function="internal">
        <lane id=":node_0_0_4_0" index="0" speed="3.65" length="1.44" shape="498.40,510.40 499.20,509.20"/>
    </edge>
    <edge id=":node_0_0_20" function="internal">
        <lane id=":node_0_0_20_0" index="0" speed="9.26" length="14.34" shape="499.11,505.44 499.15,505.15 501.40,501.40 505.15,499.15 510.40,498.40"/>
    </edge>
    <edge id=":node_0_0_21" function="internal">
        <lane id=":node_0_0_21_0" index="0" speed="3.65" length="3.23" shape="499.20,509.20 500.00,508.80 500.80,509.20 501.60,510.40"/>
    </edge>
    <edge id=":node_0_0_5" function="internal">
        <lane id=":node_0_0_5_0" index="0" speed="6.51" length="9.03" shape="510.40,504.80 507.95,505.15 506.20,506.20 505.15,507.95 504.80,510.40"/>
    </edge>
    <edge id=":node_0_0_6" function="internal">
        <lane id=":node_0_0_6_0" index="0" speed="13.89" length="20.80" shape="510.40,504.80 489.60,504.80"/>
        <lane id=":node_0_0_6_1" index="1" speed="13.89" length="20.80" shape="510.40,501.60 489.60,501.60"/>
    </edge>
    <edge id=":node_0_0_8" function="internal">
        <lane id=":node_0_0_8_0" index="0" speed="9.26" length="5.01" shape="510.40,501.60 505.44,500.89"/>
    </edge>
    <edge id=":node_0_0_9" function="internal">
        <lane id=":node_0_0_9_0" index="0" speed="3.65" length="1.44" shape="510.40,501.60 509.20,500.80"/>
    </edge>
    <edge id=":node_0_0_22" function="internal">
        <lane id=":node_0_0_22_0" index="0" speed="9.26" length="14.34" shape="505.44,500.89 505.15,500.85 501.40,498.60 499.15,494.85 498.40,489.60"/>
    </edge>
    <edge id=":node_0_0_23" function="internal">
        <lane id=":node_0_0_23_0" index="0" speed="3.65" length="3.23" shape="509.20,500.80 508.80,500.00 509.20,499.20 510.40,498.40"/>
    </edge>
    <edge id=":node_0_0_10" function="internal">
        <lane id=":node_0_0_10_0" index="0" speed="6.51" length="9.03" shape="504.80,489.60 505.15,492.05 506.20,493.80 507.95,494.85 510.40,495.20"/>
    </edge>
    <edge id=":node_0_0_11" function="internal">
        <lane id=":node_0_0_11_0" index="0" speed="13.89" length="20.80" shape="504.80,489.60 504.80,510.40"/>
        <lane id=":node_0_0_11_1" index="1" speed="13.89" length="20.80" shape="501.60,489.60 501.60,510.40"/>
    </edge>
    <edge id=":node_0_0_13" function="internal">
        <lane id=":node_0_0_13_0" index="0" speed="9.26" length="5.01" shape="501.60,489.60 500.89,494.56"/>
    </edge>
    <edge id=":node_0_0_14" function="internal">
        <lane id=":node_0_0_14_0" index="0" speed="3.65" length="1.44" shape="501.60,489.60 500.80,490.80"/>
    </edge>
    <edge id=":node_0_0_24" function="internal">
        <lane id=":node_0_0_24_0" index="0" speed="9.26" length="14.34" shape="500.89,494.56 500.85,494.85 498.60,498.60 494.85,500.85 489.60,501.60"/>
    </edge>
    <edge id=":node_0_0_25" function="internal">
        <lane id=":node_0_0_25_0" index="0" speed="3.65" length="3.23" shape="500.80,490.80 500.00,491.20 499.20,490.80 498.40,489.60"/>
    </edge>
    <edge id=":node_0_0_15" function="internal">
        <lane id=":node_0_0_15_0" index="0" speed="6.51" length="9.03" shape="489.60,495.20 492.05,494.85 493.80,493.80 494.85,492.05 495.20,489.60"/>
    </edge>
    <edge id=":node_0_0_16" function="internal">
        <lane id=":node_0_0_16_0" index="0" speed="13.89" length="20.80" shape="489.60,495.20 510.40,495.20"/>
        <lane id=":node_0_0_16_1" index="1" speed="13.89" length="20.80" shape="489.60,498.40 510.40,498.40"/>
    </edge>
    <edge id=":node_0_0_18" function="internal">
        <lane id=":node_0_0_18_0" index="0" speed="9.26" length="5.01" shape="489.60,498.40 494.56,499.11"/>
    </edge>
    <edge id=":node_0_0_19" function="internal">
        <lane id=":node_0_0_19_0" index="0" speed="3.65" length="1.44" shape="489.60,498.40 490.80,499.20"/>
    </edge>
    <edge id=":node_0_0_26" function="internal">
        <lane id=":node_0_0_26_0" index="0" speed="9.26" length="14.34" shape="494.56,499.11 494.85,499.15 498.60,501.40 500.85,505.15 501.60,510.40"/>
    </edge>
    <edge id=":node_0_0_27" function="internal">
        <lane id=":node_0_0_27_0" index="0" speed="3.65" length="3.23" shape="490.80,499.20 491.20,500.00 490.80,500.80 489.60,501.60"/>
    </edge>
    <edge id=":node_0_1_0" function="internal">
        <lane id=":node_0_1_0_0" index="0" speed="6.51" length="9.03" shape="495.20,1010.40 494.85,1007.95 493.80,1006.20 492.05,1005.15 489.60,1004.80"/>
    </edge>
    <edge id=":node_0_1_1" function="internal">
        <lane id=":node_0_1_1_0" index="0" speed="13.89" length="20.80" shape="495.20,1010.40 495.20,989.60"/>
        <lane id=":node_0_1_1_1" index="1" speed="13.89" length="20.80" shape="498.40,1010.40 498.40,989.60"/>
    </edge>
    <edge id=":node_0_1_3" function="internal">
        <lane id=":node_0_1_3_0" index="0" speed="9.26" length="5.01" shape="498.40,1010.40 499.11,1005.44"/>
    </edge>
    <edge id=":node_0_1_4" function="internal">
        <lane id=":node_0_1_4_0" index="0" speed="3.65" length="1.44" shape="498.40,1010.40 499.20,1009.20"/>
    </edge>
    <edge id=":node_0_1_20" function="internal">
        <lane id=":node_0_1_20_0" index="0" speed="9.26" length="14.34" shape="499.11,1005.44 499.15,1005.15 501.40,1001.40 505.15,999.15 510.40,998.40"/>
    </edge>
    <edge id=":node_0_1_21" function="internal">
        <lane id=":node_0_1_21_0" index="0" speed="3.65" length="3.23" shape="499.20,1009.20 500.00,1008.80 500.80,1009.20 501.60,1010.40"/>
    </edge>
    <edge id=":node_0_1_5" function="internal">
        <lane id=":node_0_1_5_0" index="0" speed="6.51" length="9.03" shape="510.40,1004.80 507.95,1005.15 506.20,1006.20 505.15,1007.95 504.80,1010.40"/>
    </edge>
    <edge id=":node_0_1_6" function="internal">
        <lane id=":node_0_1_6_0" index="0" speed="13.89" length="20.80" shape="510.40,1004.80 489.60,1004.80"/>
        <lane id=":node_0_1_6_1" index="1" speed="13.89" length="20.80" shape="510.40,1001.60 489.60,1001.60"/>
    </edge>
    <edge id=":node_0_1_8" function="internal">
        <lane id=":node_0_1_8_0" index="0" speed="9.26" length="5.01" shape="510.40,1001.60 505.44,1000.89"/>
    </edge>
    <edge id=":node_0_1_9" function="internal">
        <lane id=":node_0_1_9_0" index="0" speed="3.65" length="1.44" shape="510.40,1001.60 509.20,1000.80"/>
    </edge>
    <edge id=":node_0_1_22" function="internal">
        <lane id=":node_0_1_22_0" index="0" speed="9.26" length="14.34" shape="505.44,1000.89 505.15,1000.85 501.40,998.60 499.15,994.85 498.40,989.60"/>
    </edge>
    <edge id=":node_0_1_23" function="internal">
        <lane id=":node_0_1_23_0" index="0" speed="3.65" length="3.23" shape="509.20,1000.80 508.80,1000.00 509.20,999.20 510.40,998.40"/>
    </edge>
    <edge id=":node_0_1_10" function="internal">
        <lane id=":node_0_1_10_0" index="0" speed="6.51" length="9.03" shape="504.80,989.60 505.15,992.05 506.20,993.80 507.95,994.85 510.40,995.20"/>
    </edge>
    <edge id=":node_0_1_11" function="internal">
        <lane id=":node_0_1_11_0" index="0" speed="13.89" length="20.80" shape="504.80,989.60 504.80,1010.40"/>
        <lane id=":node_0_1_11_1" index="1" speed="13.89" length="20.80" shape="501.60,989.60 501.60,1010.40"/>
    </edge>
    <edge id=":node_0_1_13" function="internal">
        <lane id=":node_0_1_13_0" index="0" speed="9.26" length="5.01" shape="501.60,989.60 500.89,994.56"/>
    </edge>
    <edge id=":node_0_1_14" function="internal">
        <lane id=":node_0_1_14_0" index="0" speed="3.65" length="1.44" shape="501.60,989.60 500.80,990.80"/>
    </edge>
    <edge id=":node_0_1_24" function="internal">
        <lane id=":node_0_1_24_0" index="0" speed="9.26" length="14.34" shape="500.89,994.56 500.85,994.85 498.60,998.60 494.85,1000.85 489.60,1001.60"/>
    </edge>
    <edge id=":node_0_1_25" function="internal">
        <lane id=":node_0_1_25_0" index="0" speed="3.65" length="3.23" shape="500.80,990.80 500.00,991.20 499.20,990.80 498.40,989.60"/>
    </edge>
    <edge id=":node_0_1_15" function="internal">
        <lane id=":node_0_1_15_0" index="0" speed="6.51" length="9.03" shape="489.60,995.20 492.05,994.85 493.80,993.80 494.85,992.05 495.20,989.60"/>
    </edge>
    <edge id=":node_0_1_16" function="internal">
        <lane id=":node_0_1_16_0" index="0" speed="13.89" length="20.80" shape="489.60,995.20 510.40,995.20"/>
        <lane id=":node_0_1_16_1" index="1" speed="13.89" length="20.80" shape="489.60,998.40 510.40,998.40"/>
    </edge>
    <edge id=":node_0_1_18" function="internal">
        <lane id=":node_0_1_18_0" index="0" speed="9.26" length="5.01" shape="489.60,998.40 494.56,999.11"/>
    </edge>
    <edge id=":node_0_1_19" function="internal">
        <lane id=":node_0_1_19_0" index="0" speed="3.65" length="1.44" shape="489.60,998.40 490.80,999.20"/>
    </edge>
    <edge id=":node_0_1_26" function="internal">
        <lane id=":node_0_1_26_0" index="0" speed="9.26" length="14.34" shape="494.56,999.11 494.85,999.15 498.60,1001.40 500.85,1005.15 501.60,1010.40"/>
    </edge>
    <edge id=":node_0_1_27" function="internal">
        <lane id=":node_0_1_27_0" index="0" speed="3.65" length="3.23" shape="490.80,999.20 491.20,1000.00 490.80,1000.80 489.60,1001.60"/>
    </edge>
    <edge id=":node_1_0_0" function="internal">
        <lane id=":node_1_0_0_0" index="0" speed="6.51" length="9.03" shape="995.20,510.40 994.85,507.95 993.80,506.20 992.05,505.15 989.60,504.80"/>
    </edge>
    <edge id=":node_1_0_1" function="internal">
        <lane id=":node_1_0_1_0" index="0" speed="13.89" length="20.80" shape="995.20,510.40 995.20,489.60"/>
        <lane id=":node_1_0_1_1" index="1" speed="13.89" length="20.80" shape="998.40,510.40 998.40,489.60"/>
    </edge>
    <edge id=":node_1_0_3" function="internal">
        <lane id=":node_1_0_3_0" index="0" speed="9.26" length="5.01" shape="998.40,510.40 999.11,505.44"/>
    </edge>
    <edge id=":node_1_0_4" function="internal">
        <lane id=":node_1_0_4_0" index="0" speed="3.65" length="1.44" shape="998.40,510.40 999.20,509.20"/>
    </edge>
    <edge id=":node_1_0_20" function="internal">
        <lane id=":node_1_0_20_0" index="0" speed="9.26" length="14.34" shape="999.11,505.44 999.15,505.15 1001.40,501.40 1005.15,499.15 1010.40,498.40"/>
    </edge>
    <edge id=":node_1_0_21" function="internal">
        <lane id=":node_1_0_21_0" index="0" speed="3.65" length="3.23" shape="999.20,509.20 1000.00,508.80 1000.80,509.20 1001.60,510.40"/>
    </edge>
    <edge id=":node_1_0_5" function="internal">
        <lane id=":node_1_0_5_0" index="0" speed="6.51" length="9.03" shape="1010.40,504.80 1007.95,505.15 1006.20,506.20 1005.15,507.95 1004.80,510.40"/>
    </edge>
    <edge id=":node_1_0_6" function="internal">
        <lane id=":node_1_0_6_0" index="0" speed="13.89" length="20.80" shape="1010.40,504.80 989.60,504.80"/>
        <lane id=":node_1_0_6_1" index="1" speed="13.89" length="20.80" shape="1010.40,501.60 989.60,501.60"/>
    </edge>
    <edge id=":node_1_0_8" function="internal">
        <lane id=":node_1_0_8_0" index="0" speed="9.26" length="5.01" shape="1010.40,501.60 1005.44,500.89"/>
    </edge>
    <edge id=":node_1_0_9" function="internal">
        <lane id=":node_1_0_9_0" index="0" speed="3.65" length="1.44" shape="1010.40,501.60 1009.20,500.80"/>
    </edge>
    <edge id=":node_1_0_22" function="internal">
        <lane id=":node_1_0_22_0" index="0" speed="9.26" length="14.34" shape="1005.44,500.89 1005.15,500.85 1001.40,498.60 999.15,494.85 998.40,489.60"/>
    </edge>
    <edge id=":node_1_0_23" function="internal">
        <lane id=":node_1_0_23_0" index="0" speed="3.65" length="3.23" shape="1009.20,500.80 1008.80,500.00 1009.20,499.20 1010.40,498.40"/>
    </edge>
    <edge id=":node_1_0_10" function="internal">
        <lane id=":node_1_0_10_0" index="0" speed="6.51" length="9.03" shape="1004.80,489.60 1005.15,492.05 1006.20,493.80 1007.95,494.85 1010.40,495.20"/>
    </edge>
    <edge id=":node_1_0_11" function="internal">
        <lane id=":node_1_0_11_0" index="0" speed="13.89" length="20.80" shape="1004.80,489.60 1004.80,510.40"/>
        <lane id=":node_1_0_11_1" index="1" speed="13.89" length="20.80" shape="1001.60,489.60 1001.60,510.40"/>
    </edge>
    <edge id=":node_1_0_13" function="internal">
        <lane id=":node_1_0_13_0" index="0" speed="9.26" length="5.01" shape="1001.60,489.60 1000.89,494.56"/>
    </edge>
    <edge id=":node_1_0_14" function="internal">
        <lane id=":node_1_0_14_0" index="0" speed="3.65" length="1.44" shape="1001.60,489.60 1000.80,490.80"/>
    </edge>
    <edge id=":node_1_0_24" function="internal">
        <lane id=":node_1_0_24_0" index="0" speed="9.26" length="14.34" shape="1000.89,494.56 1000.85,494.85 998.60,498.60 994.85,500.85 989.60,501.60"/>
    </edge>
    <edge id=":node_1_0_25" function="internal">
        <lane id=":node_1_0_25_0" index="0" speed="3.65" length="3.23" shape="1000.80,490.80 1000.00,491.20 999.20,490.80 998.40,489.60"/>
    </edge>
    <edge id=":node_1_0_15" function="internal">
        <lane id=":node_1_0_15_0" index="0" speed="6.51" length="9.03" shape="989.60,495.20 992.05,494.85 993.80,493.80 994.85,492.05 995.20,489.60"/>
    </edge>
    <edge id=":node_1_0_16" function="internal">
        <lane id=":node_1_0_16_0" index="0" speed="13.89" length="20.80" shape="989.60,495.20 1010.40,495.20"/>
        <lane id=":node_1_0_16_1" index="1" speed="13.89" length="20.80" shape="989.60,498.40 1010.40,498.40"/>
    </edge>
    <edge id=":node_1_0_18" function="internal">
        <lane id=":node_1_0_18_0" index="0" speed="9.26" length="5.01" shape="989.60,498.40 994.56,499.11"/>
    </edge>
    <edge id=":node_1_0_19" function="internal">
        <lane id=":node_1_0_19_0" index="0" speed="3.65" length="1.44" shape="989.60,498.40 990.80,499.20"/>
    </edge>
    <edge id=":node_1_0_26" function="internal">
        <lane id=":node_1_0_26_0" index="0" speed="9.26" length="14.34" shape="994.56,499.11 994.85,499.15 998.60,501.40 1000.85,505.15 1001.60,510.40"/>
    </edge>
    <edge id=":node_1_0_27" function="internal">
        <lane id=":node_1_0_27_0" index="0" speed="3.65" length="3.23" shape="990.80,499.20 991.20,500.00 990.80,500.80 989.60,501.60"/>
    </edge>
    <edge id=":node_1_1_0" function="internal">
        <lane id=":node_1_1_0_0" index="0" speed="6.51" length="9.03" shape="995.20,1010.40 994.85,1007.95 993.80,1006.20 992.05,1005.15 989.60,1004.80"/>
    </edge>
    <edge id=":node_1_1_1" function="internal">
        <lane id=":node_1_1_1_0" index="0" speed="13.89" length="20.80" shape="995.20,1010.40 995.20,989.60"/>
        <lane id=":node_1_1_1_1" index="1" speed="13.89" length="20.80" shape="998.40,1010.40 998.40,989.60"/>
    </edge>
    <edge id=":node_1_1_3" function="internal">
        <lane id=":node_1_1_3_0" index="0" speed="9.26" length="5.01" shape="998.40,1010.40 999.11,1005.44"/>
    </edge>
    <edge id=":node_1_1_4" function="internal">
        <lane id=":node_1_1_4_0" index="0" speed="3.65" length="1.44" shape="998.40,1010.40 999.20,1009.20"/>
    </edge>
    <edge id=":node_1_1_20" function="internal">
        <lane id=":node_1_1_20_0" index="0" speed="9.26" length="14.34" shape="999.11,1005.44 999.15,1005.15 1001.40,1001.40 1005.15,999.15 1010.40,998.40"/>
    </edge>
    <edge id=":node_1_1_21" function="internal">
        <lane id=":node_1_1_21_0" index="0" speed="3.65" length="3.23" shape="999.20,1009.20 1000.00,1008.80 1000.80,1009.20 1001.60,1010.40"/>
    </edge>
    <edge id=":node_1_1_5" function="internal">
        <lane id=":node_1_1_5_0" index="0" speed="6.51" length="9.03" shape="1010.40,1004.80 1007.95,1005.15 1006.20,1006.20 1005.15,1007.95 1004.80,1010.40"/>
    </edge>
    <edge id=":node_1_1_6" function="internal">
        <lane id=":node_1_1_6_0" index="0" speed="13.89" length="20.80" shape="1010.40,1004.80 989.60,1004.80"/>
        <lane id=":node_1_1_6_1" index="1" speed="13.89" length="20.80" shape="1010.40,1001.60 989.60,1001.60"/>
    </edge>
    <edge id=":node_1_1_8" function="internal">
        <lane id=":node_1_1_8_0" index="0" speed="9.26" length="5.01" shape="1010.40,1001.60 1005.44,1000.89"/>
    </edge>
    <edge id=":node_1_1_9" function="internal">
        <lane id=":node_1_1_9_0" index="0" speed="3.65" length="1.44" shape="1010.40,1001.60 1009.20,1000.80"/>
    </edge>
    <edge id=":node_1_1_22" function="internal">
        <lane id=":node_1_1_22_0" index="0" speed="9.26" length="14.34" shape="1005.44,1000.89 1005.15,1000.85 1001.40,998.60 999.15,994.85 998.40,989.60"/>
    </edge>
    <edge id=":node_1_1_23" function="internal">
        <lane id=":node_1_1_23_0" index="0" speed="3.65" length="3.23" shape="1009.20,1000.80 1008.80,1000.00 1009.20,999.20 1010.40,998.40"/>
    </edge>
    <edge id=":node_1_1_10" function="internal">
        <lane id=":node_1_1_10_0" index="0" speed="6.51" length="9.03" shape="1004.80,989.60 1005.15,992.05 1006.20,993.80 1007.95,994.85 1010.40,995.20"/>
    </edge>
    <edge id=":node_1_1_11" function="internal">
        <lane id=":node_1_1_11_0" index="0" speed="13.89" length="20.80" shape="1004.80,989.60 1004.80,1010.40"/>
        <lane id=":node_1_1_11_1" index="1" speed="13.89" length="20.80" shape="1001.60,989.60 1001.60,1010.40"/>
    </edge>
    <edge id=":node_1_1_13" function="internal">
        <lane id=":node_1_1_13_0" index="0" speed="9.26" length="5.01" shape="1001.60,989.60 1000.89,994.56"/>
    </edge>
    <edge id=":node_1_1_14" function="internal">
        <lane id=":node_1_1_14_0" index="0" speed="3.65" length="1.44" shape="1001.60,989.60 1000.80,990.80"/>
    </edge>
    <edge id=":node_1_1_24" function="internal">
        <lane id=":node_1_1_24_0" index="0" speed="9.26" length="14.34" shape="1000.89,994.56 1000.85,994.85 998.60,998.60 994.85,1000.85 989.60,1001.60"/>
    </edge>
    <edge id=":node_1_1_25" function="internal">
        <lane id=":node_1_1_25_0" index="0" speed="3.65" length="3.23" shape="1000.80,990.80 1000.00,991.20 999.20,990.80 998.40,989.60"/>
    </edge>
    <edge id=":node_1_1_15" function="internal">
        <lane id=":node_1_1_15_0" index="0" speed="6.51" length="9.03" shape="989.60,995.20 992.05,994.85 993.80,993.80 994.85,992.05 995.20,989.60"/>
    </edge>
    <edge id=":node_1_1_16" function="internal">
        <lane id=":node_1_1_16_0" index="0" speed="13.89" length="20.80" shape="989.60,995.20 1010.40,995.20"/>
        <lane id=":node_1_1_16_1" index="1" speed="13.89" length="20.80" shape="989.60,998.40 1010.40,998.40"/>
    </edge>
    <edge id=":node_1_1_18" function="internal">
        <lane id=":node_1_1_18_0" index="0" speed="9.26" length="5.01" shape="989.60,998.40 994.56,999.11"/>
    </edge>
    <edge id=":node_1_1_19" function="internal">
        <lane id=":node_1_1_19_0" index="0" speed="3.65" length="1.44" shape="989.60,998.40 990.80,999.20"/>
    </edge>
    <edge id=":node_1_1_26" function="internal">
        <lane id=":node_1_1_26_0" index="0" speed="9.26" length="14.34" shape="994.56,999.11 994.85,999.15 998.60,1001.40 1000.85,1005.15 1001.60,1010.40"/>
    </edge>
    <edge id=":node_1_1_27" function="internal">
        <lane id=":node_1_1_27_0" index="0" speed="3.65" length="3.23" shape="990.80,999.20 991.20,1000.00 990.80,1000.80 989.60,1001.60"/>
    </edge>
    <edge id=":north_0_0" function="internal">
        <lane id=":north_0_0_0" index="0" speed="3.65" length="4.67" shape="501.60,1500.00 500.80,1501.20 500.00,1501.60 499.20,1501.20 498.40,1500.00"/>
    </edge>
    <edge id=":north_1_0" function="internal">
        <lane id=":north_1_0_0" index="0" speed="3.65" length="4.67" shape="1001.60,1500.00 1000.80,1501.20 1000.00,1501.60 999.20,1501.20 998.40,1500.00"/>
    </edge>
    <edge id=":south_0_0" function="internal">
        <lane id=":south_0_0_0" index="0" speed="3.65" length="4.67" shape="498.40,0.00 499.20,-1.20 500.00,-1.60 500.80,-1.20 501.60,0.00"/>
    </edge>
    <edge id=":south_1_0" function="internal">
        <lane id=":south_1_0_0" index="0" speed="3.65" length="4.67" shape="998.40,0.00 999.20,-1.20 1000.00,-1.60 1000.80,-1.20 1001.60,0.00"/>
    </edge>
    <edge id=":west_0_0" function="internal">
        <lane id=":west_0_0_0" index="0" speed="3.65" length="4.67" shape="0.00,501.60 -1.20,500.80 -1.60,500.00 -1.20,499.20 0.00,498.40"/>
    </edge>
    <edge id=":west_1_0" function="internal">
        <lane id=":west_1_0_0" index="0" speed="3.65" length="4.67" shape="0.00,1001.60 -1.20,1000.80 -1.60,1000.00 -1.20,999.20 0.00,998.40"/>
    </edge>

    <edge id="E_east0_to_n10" from="east_0" to="node_1_0" priority="-1">
        <lane id="E_east0_to_n10_0" index="0" speed="13.89" length="489.60" shape="1500.00,504.80 1010.40,504.80"/>
        <lane id="E_east0_to_n10_1" index="1" speed="13.89" length="489.60" shape="1500.00,501.60 1010.40,501.60"/>
    </edge>
    <edge id="E_east1_to_n11" from="east_1" to="node_1_1" priority="-1">
        <lane id="E_east1_to_n11_0" index="0" speed="13.89" length="489.60" shape="1500.00,1004.80 1010.40,1004.80"/>
        <lane id="E_east1_to_n11_1" index="1" speed="13.89" length="489.60" shape="1500.00,1001.60 1010.40,1001.60"/>
    </edge>
    <edge id="E_n00_to_n01" from="node_0_0" to="node_0_1" priority="-1">
        <lane id="E_n00_to_n01_0" index="0" speed="13.89" length="479.20" shape="504.80,510.40 504.80,989.60"/>
        <lane id="E_n00_to_n01_1" index="1" speed="13.89" length="479.20" shape="501.60,510.40 501.60,989.60"/>
    </edge>
    <edge id="E_n00_to_n10" from="node_0_0" to="node_1_0" priority="-1">
        <lane id="E_n00_to_n10_0" index="0" speed="13.89" length="479.20" shape="510.40,495.20 989.60,495.20"/>
        <lane id="E_n00_to_n10_1" index="1" speed="13.89" length="479.20" shape="510.40,498.40 989.60,498.40"/>
    </edge>
    <edge id="E_n00_to_south0" from="node_0_0" to="south_0" priority="-1">
        <lane id="E_n00_to_south0_0" index="0" speed="13.89" length="489.60" shape="495.20,489.60 495.20,0.00"/>
        <lane id="E_n00_to_south0_1" index="1" speed="13.89" length="489.60" shape="498.40,489.60 498.40,0.00"/>
    </edge>
    <edge id="E_n00_to_west0" from="node_0_0" to="west_0" priority="-1">
        <lane id="E_n00_to_west0_0" index="0" speed="13.89" length="489.60" shape="489.60,504.80 0.00,504.80"/>
        <lane id="E_n00_to_west0_1" index="1" speed="13.89" length="489.60" shape="489.60,501.60 0.00,501.60"/>
    </edge>
    <edge id="E_n01_to_n00" from="node_0_1" to="node_0_0" priority="-1">
        <lane id="E_n01_to_n00_0" index="0" speed="13.89" length="479.20" shape="495.20,989.60 495.20,510.40"/>
        <lane id="E_n01_to_n00_1" index="1" speed="13.89" length="479.20" shape="498.40,989.60 498.40,510.40"/>
    </edge>
    <edge id="E_n01_to_n11" from="node_0_1" to="node_1_1" priority="-1">
        <lane id="E_n01_to_n11_0" index="0" speed="13.89" length="479.20" shape="510.40,995.20 989.60,995.20"/>
        <lane id="E_n01_to_n11_1" index="1" speed="13.89" length="479.20" shape="510.40,998.40 989.60,998.40"/>
    </edge>
    <edge id="E_n01_to_north0" from="node_0_1" to="north_0" priority="-1">
        <lane id="E_n01_to_north0_0" index="0" speed="13.89" length="489.60" shape="504.80,1010.40 504.80,1500.00"/>
        <lane id="E_n01_to_north0_1" index="1" speed="13.89" length="489.60" shape="501.60,1010.40 501.60,1500.00"/>
    </edge>
    <edge id="E_n01_to_west1" from="node_0_1" to="west_1" priority="-1">
        <lane id="E_n01_to_west1_0" index="0" speed="13.89" length="489.60" shape="489.60,1004.80 0.00,1004.80"/>
        <lane id="E_n01_to_west1_1" index="1" speed="13.89" length="489.60" shape="489.60,1001.60 0.00,1001.60"/>
    </edge>
    <edge id="E_n10_to_east0" from="node_1_0" to="east_0" priority="-1">
        <lane id="E_n10_to_east0_0" index="0" speed="13.89" length="489.60" shape="1010.40,495.20 1500.00,495.20"/>
        <lane id="E_n10_to_east0_1" index="1" speed="13.89" length="489.60" shape="1010.40,498.40 1500.00,498.40"/>
    </edge>
    <edge id="E_n10_to_n00" from="node_1_0" to="node_0_0" priority="-1">
        <lane id="E_n10_to_n00_0" index="0" speed="13.89" length="479.20" shape="989.60,504.80 510.40,504.80"/>
        <lane id="E_n10_to_n00_1" index="1" speed="13.89" length="479.20" shape="989.60,501.60 510.40,501.60"/>
    </edge>
    <edge id="E_n10_to_n11" from="node_1_0" to="node_1_1" priority="-1">
        <lane id="E_n10_to_n11_0" index="0" speed="13.89" length="479.20" shape="1004.80,510.40 1004.80,989.60"/>
        <lane id="E_n10_to_n11_1" index="1" speed="13.89" length="479.20" shape="1001.60,510.40 1001.60,989.60"/>
    </edge>
    <edge id="E_n10_to_south1" from="node_1_0" to="south_1" priority="-1">
        <lane id="E_n10_to_south1_0" index="0" speed="13.89" length="489.60" shape="995.20,489.60 995.20,0.00"/>
        <lane id="E_n10_to_south1_1" index="1" speed="13.89" length="489.60" shape="998.40,489.60 998.40,0.00"/>
    </edge>
    <edge id="E_n11_to_east1" from="node_1_1" to="east_1" priority="-1">
        <lane id="E_n11_to_east1_0" index="0" speed="13.89" length="489.60" shape="1010.40,995.20 1500.00,995.20"/>
        <lane id="E_n11_to_east1_1" index="1" speed="13.89" length="489.60" shape="1010.40,998.40 1500.00,998.40"/>
    </edge>
    <edge id="E_n11_to_n01" from="node_1_1" to="node_0_1" priority="-1">
        <lane id="E_n11_to_n01_0" index="0" speed="13.89" length="479.20" shape="989.60,1004.80 510.40,1004.80"/>
        <lane id="E_n11_to_n01_1" index="1" speed="13.89" length="479.20" shape="989.60,1001.60 510.40,1001.60"/>
    </edge>
    <edge id="E_n11_to_n10" from="node_1_1" to="node_1_0" priority="-1">
        <lane id="E_n11_to_n10_0" index="0" speed="13.89" length="479.20" shape="995.20,989.60 995.20,510.40"/>
        <lane id="E_n11_to_n10_1" index="1" speed="13.89" length="479.20" shape="998.40,989.60 998.40,510.40"/>
    </edge>
    <edge id="E_n11_to_north1" from="node_1_1" to="north_1" priority="-1">
        <lane id="E_n11_to_north1_0" index="0" speed="13.89" length="489.60" shape="1004.80,1010.40 1004.80,1500.00"/>
        <lane id="E_n11_to_north1_1" index="1" speed="13.89" length="489.60" shape="1001.60,1010.40 1001.60,1500.00"/>
    </edge>
    <edge id="E_north0_to_n01" from="north_0" to="node_0_1" priority="-1">
        <lane id="E_north0_to_n01_0" index="0" speed="13.89" length="489.60" shape="495.20,1500.00 495.20,1010.40"/>
        <lane id="E_north0_to_n01_1" index="1" speed="13.89" length="489.60" shape="498.40,1500.00 498.40,1010.40"/>
    </edge>
    <edge id="E_north1_to_n11" from="north_1" to="node_1_1" priority="-1">
        <lane id="E_north1_to_n11_0" index="0" speed="13.89" length="489.60" shape="995.20,1500.00 995.20,1010.40"/>
        <lane id="E_north1_to_n11_1" index="1" speed="13.89" length="489.60" shape="998.40,1500.00 998.40,1010.40"/>
    </edge>
    <edge id="E_south0_to_n00" from="south_0" to="node_0_0" priority="-1">
        <lane id="E_south0_to_n00_0" index="0" speed="13.89" length="489.60" shape="504.80,0.00 504.80,489.60"/>
        <lane id="E_south0_to_n00_1" index="1" speed="13.89" length="489.60" shape="501.60,0.00 501.60,489.60"/>
    </edge>
    <edge id="E_south1_to_n10" from="south_1" to="node_1_0" priority="-1">
        <lane id="E_south1_to_n10_0" index="0" speed="13.89" length="489.60" shape="1004.80,0.00 1004.80,489.60"/>
        <lane id="E_south1_to_n10_1" index="1" speed="13.89" length="489.60" shape="1001.60,0.00 1001.60,489.60"/>
    </edge>
    <edge id="E_west0_to_n00" from="west_0" to="node_0_0" priority="-1">
        <lane id="E_west0_to_n00_0" index="0" speed="13.89" length="489.60" shape="0.00,495.20 489.60,495.20"/>
        <lane id="E_west0_to_n00_1" index="1" speed="13.89" length="489.60" shape="0.00,498.40 489.60,498.40"/>
    </edge>
    <edge id="E_west1_to_n01" from="west_1" to="node_0_1" priority="-1">
        <lane id="E_west1_to_n01_0" index="0" speed="13.89" length="489.60" shape="0.00,995.20 489.60,995.20"/>